# created with PyMOL 2.5.2
@<TRIPOS>MOLECULE
complex_vdw_bonded
12 12 1                 
SMALL
USER_CHARGES
@<TRIPOS>ATOM
1	  C1	-6.807	-8.733	-6.401	C.3	1	BNZ1	0.000	
2	  C2	-6.390	-8.986	-7.681	C.3	1	BNZ1	0.000	
3	  C3	-5.445	-8.200	-8.278	C.3	1	BNZ1	0.000	
4	  C4	-4.948	-7.139	-7.611	C.3	1	BNZ1	0.000	
5	  C5	-5.365	-6.864	-6.324	C.3	1	BNZ1	0.000	
6	  C6	-6.287	-7.681	-5.711	C.3	1	BNZ1	0.000	
7	  H1	-7.545	-9.367	-5.941	 H	1	BNZ1	0.000	
8	  H2	-6.817	-9.815	-8.216	 H	1	BNZ1	0.000	
9	  H3	-5.097	-8.421	-9.272	 H	1	BNZ1	0.000	
10	  H4	-4.222	-6.504	-8.088	 H	1	BNZ1	0.000	
11	  H5	-4.970	-6.012	-5.801	 H	1	BNZ1	0.000	
12	  H6	-6.590	-7.485	-4.697	 H	1	BNZ1	0.000	
@<TRIPOS>BOND
1 1 2 1
2 1 6 1
3 1 7 1
4 2 3 1
5 2 8 1
6 3 4 1
7 3 9 1
8 4 5 1
9 4 10 1
10 5 6 1
11 5 11 1
12 6 12 1
@<TRIPOS>SUBSTRUCTURE
1	BNZ1	1	GROUP	1 ****	BNZ
