# created with PyMOL 2.5.2
@<TRIPOS>MOLECULE
complex_vdw_bonded
13 13 1                 
SMALL
USER_CHARGES
@<TRIPOS>ATOM
1	  C1	-6.807	-8.733	-6.401	C.3	1	PHN2	0.000	
2	  O1	-6.630	-7.385	-4.436	O.3	1	PHN2	0.000	
3	  C2	-6.390	-8.986	-7.681	C.3	1	PHN2	0.000	
4	  C3	-5.445	-8.200	-8.278	C.3	1	PHN2	0.000	
5	  C4	-4.948	-7.139	-7.611	C.3	1	PHN2	0.000	
6	  C5	-5.365	-6.864	-6.324	C.3	1	PHN2	0.000	
7	  C6	-6.287	-7.681	-5.711	C.3	1	PHN2	0.000	
8	  H1	-7.546	-9.364	-5.937	 H	1	PHN2	0.000	
9	  H2	-6.818	-9.816	-8.215	 H	1	PHN2	0.000	
10	  H3	-5.103	-8.428	-9.271	 H	1	PHN2	0.000	
11	  H4	-4.222	-6.497	-8.076	 H	1	PHN2	0.000	
12	  H5	-4.982	-6.018	-5.786	 H	1	PHN2	0.000	
13	  H6	-7.260	-8.011	-4.107	 H	1	PHN2	0.000	
@<TRIPOS>BOND
1 1 3 1
2 1 7 1
3 1 8 1
4 2 13 1
5 3 4 1
6 3 9 1
7 4 5 1
8 4 10 1
9 5 6 1
10 5 11 1
11 6 7 1
12 6 12 1
13 2 7 1
@<TRIPOS>SUBSTRUCTURE
1	PHN2	1	GROUP	1 ****	PHN
