@<TRIPOS>MOLECULE
FEN
   13    13     1     0     0
SMALL
bcc


@<TRIPOS>ATOM
      1 C1          -6.8070    -8.7330    -6.4010 ca         1 FEN      -0.185000
      2 O1          -6.6300    -7.3850    -4.4360 oh         1 FEN      -0.499100
      3 C2          -6.3900    -8.9860    -7.6810 ca         1 FEN      -0.094500
      4 C3          -5.4450    -8.2000    -8.2780 ca         1 FEN      -0.166000
      5 C4          -4.9480    -7.1390    -7.6110 ca         1 FEN      -0.094500
      6 C5          -5.3650    -6.8640    -6.3240 ca         1 FEN      -0.185000
      7 C6          -6.2870    -7.6810    -5.7110 ca         1 FEN       0.123100
      8 H1          -7.5460    -9.3640    -5.9370 ha         1 FEN       0.141500
      9 H2          -6.8180    -9.8160    -8.2150 ha         1 FEN       0.133000
     10 H3          -5.1030    -8.4280    -9.2710 ha         1 FEN       0.133000
     11 H4          -4.2220    -6.4970    -8.0760 ha         1 FEN       0.133000
     12 H5          -4.9820    -6.0180    -5.7860 ha         1 FEN       0.141500
     13 H6          -7.2600    -8.0110    -4.1070 ho         1 FEN       0.418000
@<TRIPOS>BOND
     1     1     3 ar  
     2     1     7 ar  
     3     1     8 1   
     4     2    13 1   
     5     3     4 ar  
     6     3     9 1   
     7     4     5 ar  
     8     4    10 1   
     9     5     6 ar  
    10     5    11 1   
    11     6     7 ar  
    12     6    12 1   
    13     2     7 1   
@<TRIPOS>SUBSTRUCTURE
     1 FEN         1 TEMP              0 ****  ****    0 ROOT
